
Note: No compatibility mode selected!


Circuit: * test for cell_0b1110_2_bu

Doing analysis at TEMP = 27.000000 and TNOM = 27.000000

Note: include: has no value, DC 0 assumed

Initial Transient Solution
--------------------------

Node                                   Voltage
----                                   -------
sky130_fd_pr__esd_nfet_05v0_nvt.pm3               0
                                             0
vdd                                        1.8
vss                                          0
q                                  4.53213e-09
xdut.nq                                    1.8
b                                            0
a                                            0
xdut.u01                                   1.8
vina#branch                                  0
vinb#branch                                  0
vvss#branch                        7.23786e-12
vvdd#branch                       -7.23779e-12


No. of Data Rows : 234

  Measurements for Transient Analysis

v0                  =  4.532131e-09
v1                  =  1.800033e+00
v2                  =  1.800000e+00
v3                  =  1.800001e+00


Total analysis time (seconds) = 0.006

Total elapsed time (seconds) = 6.519 

Total DRAM available = 7823.031 MB.
DRAM currently available = 3107.043 MB.
Maximum ngspice program size =  410.344 MB.
Current ngspice program size =  332.152 MB.

Shared ngspice pages =   10.445 MB.
Text (code) pages =    6.852 MB.
Stack = 0 bytes.
Library pages =  330.246 MB.

