
Note: No compatibility mode selected!


Circuit: * test for cell_0b10_1_bu

Doing analysis at TEMP = 27.000000 and TNOM = 27.000000

Note: include: has no value, DC 0 assumed

Initial Transient Solution
--------------------------

Node                                   Voltage
----                                   -------
sky130_fd_pr__esd_nfet_05v0_nvt.pm3               0
                                             0
vdd                                        1.8
vss                                          0
q                                  4.53212e-09
xdut.nq                                    1.8
a                                            0
vina#branch                                  0
vvss#branch                        5.36047e-12
vvdd#branch                       -5.36046e-12


No. of Data Rows : 118

  Measurements for Transient Analysis

v0                  =  4.532131e-09
v1                  =  1.800029e+00


Total analysis time (seconds) = 0.002

Total elapsed time (seconds) = 5.939 

Total DRAM available = 7823.031 MB.
DRAM currently available = 3098.730 MB.
Maximum ngspice program size =  410.391 MB.
Current ngspice program size =  332.090 MB.

Shared ngspice pages =   10.340 MB.
Text (code) pages =    6.852 MB.
Stack = 0 bytes.
Library pages =  330.293 MB.

